Version 4
SHEET 1 880 680
WIRE 528 80 320 80
WIRE 320 128 320 80
WIRE 528 128 528 80
WIRE 144 256 32 256
WIRE 320 272 320 208
WIRE 32 304 32 256
WIRE 144 352 144 256
WIRE 160 352 144 352
WIRE 272 352 240 352
WIRE 32 400 32 384
WIRE 320 400 320 368
WIRE 320 400 32 400
WIRE 432 400 320 400
WIRE 528 400 528 208
WIRE 528 400 432 400
WIRE 432 432 432 400
FLAG 432 432 0
SYMBOL voltage 528 112 R0
WINDOW 123 0 0 Left 2
WINDOW 39 0 0 Left 2
SYMATTR InstName V1
SYMATTR Value SINE(0 120 60)
SYMBOL res 304 112 R0
SYMATTR InstName R1
SYMATTR Value 10k
SYMBOL nmos 272 272 R0
SYMATTR InstName M1
SYMATTR Value STN3N45K3
SYMBOL voltage 32 288 R0
WINDOW 3 -440 104 Left 2
WINDOW 123 0 0 Left 2
WINDOW 39 0 0 Left 2
SYMATTR InstName V2
SYMATTR Value PULSE(0 5 0 10ns 10ns 125us 250us)
SYMBOL res 256 336 R90
WINDOW 0 0 56 VBottom 2
WINDOW 3 32 56 VTop 2
SYMATTR InstName R2
SYMATTR Value 100
TEXT 358 278 Left 2 !.tran 16ms
