Version 4
SHEET 1 1000 680
WIRE 528 80 320 80
WIRE 320 128 320 80
WIRE 528 128 528 80
WIRE 320 272 320 208
WIRE 80 352 32 352
WIRE 208 352 160 352
WIRE 272 352 208 352
WIRE 320 416 320 368
WIRE 320 416 240 416
WIRE 320 448 320 416
WIRE 32 464 32 352
WIRE 208 464 208 352
WIRE 272 464 208 464
WIRE 320 608 320 544
WIRE 528 608 528 208
WIRE 528 608 320 608
WIRE 32 624 32 544
WIRE 160 624 32 624
WIRE 240 624 240 416
WIRE 240 624 160 624
WIRE 160 656 160 624
FLAG 160 656 0
SYMBOL voltage 528 112 R0
WINDOW 123 0 0 Left 2
WINDOW 39 0 0 Left 2
SYMATTR InstName V1
SYMATTR Value SINE(0 120 60)
SYMBOL res 304 112 R0
SYMATTR InstName R1
SYMATTR Value 8
SYMBOL nmos 272 272 R0
SYMATTR InstName M1
SYMATTR Value R6020PNJ
SYMBOL voltage 32 448 R0
WINDOW 3 -440 104 Left 2
WINDOW 123 0 0 Left 2
WINDOW 39 0 0 Left 2
SYMATTR InstName V2
SYMATTR Value PULSE(0 120 0 10ns 10ns 125us 250us)
SYMBOL res 176 336 R90
WINDOW 0 0 56 VBottom 2
WINDOW 3 32 56 VTop 2
SYMATTR InstName R2
SYMATTR Value 10
SYMBOL nmos 272 544 M180
SYMATTR InstName M2
SYMATTR Value R6020PNJ
TEXT 358 278 Left 2 !.tran 16ms
